*Heading
** Job name: Job-roof_shell Model name: Model-1
** Generated by: Abaqus/CAE 6.14-4
*Preprint, echo=NO, model=NO, history=NO, contact=NO
**
** PARTS
**
*Part, name=cycloid_hypotro
*Node
1,3.88912654,3.0246137778971534,-3.88855147
2,0.000154038687,2.4725481125872987e-09,3.15842371e-05
3,4.50035095,2.0253158711493753,0.000195775006
4,3.88863087,3.0246139567001826,3.88904738
5,0.0,2.025,4.5
6,-3.88857388,3.0246137754201317,-3.88910413
7,0.000308091549,2.0253154537756632,-4.50035048
8,-3.88898015,3.0246137653462606,3.88869786
9,-4.50035095,2.0253158690753374,-0.000132617773
10,3.85377216,2.969871526447952,-3.85320067
11,3.81841803,2.91562957142561,-3.81785011
12,3.78306365,2.86188716101018,-3.78249931
13,3.74770927,2.808644672843916,-3.74714851
14,3.71235514,2.7559022925445666,-3.71179771
15,3.67700076,2.7036596471089127,-3.67644691
16,3.64164639,2.6519169384879087,-3.64109612
17,3.60629225,2.6006744763754868,-3.60574555
18,3.57093787,2.54993159422277,-3.57039475
19,3.5355835,2.499688641390385,-3.53504395
20,3.50022936,2.44994577867568,-3.49969316
** ... 34962 like lines cut
*Element, type=S3
   1, 2721, 2404, 2702
   2, 2630, 2424, 2443
   3, 3559, 3555, 3467
   4, 3627, 3425, 3523
   5, 3869, 3628, 1496
   6, 3915, 3774, 1508
   7, 4229, 4072, 1521
   8, 4343, 4229, 4257
   9, 4524, 4451, 1552
  10, 5610, 4795, 4839
  11, 5148, 5103, 1589
  12, 5149, 5091, 5079
  13, 5140, 1609, 5091
  14, 5178, 5150, 1652
  15, 5269, 5178, 1652
  16, 5462, 5421, 1701
  17, 5412, 5300, 5343
  18, 5344, 1755, 5255
  19, 5497, 5444, 5464
  20, 5467, 5422, 5444
** ... 69270 like lines cut
*Nset, nset=_PickedSet23, internal, generate
     1,  34982,      1
*Elset, elset=_PickedSet23, internal, generate
     1,  69290,      1
** Section: Section-1
*Shell Section, elset=_PickedSet23, material=Material-1
0.5, 5
*End Part
**  
**
** ASSEMBLY
**
*Assembly, name=Assembly
**  
*Instance, name=cycloid_hypotro-1, part=cycloid_hypotro
*End Instance
**  
*Nset, nset=_PickedSet4, internal, instance=cycloid_hypotro-1
 1, 4, 6, 8
*Nset, nset=_PickedSet6, internal, instance=cycloid_hypotro-1
 2,
*End Assembly
** 
** MATERIALS
** 
*Material, name=Material-1
*Elastic
210000., 0.3
** 
** BOUNDARY CONDITIONS
** 
** Name: BC-1 Type: Symmetry/Antisymmetry/Encastre
*Boundary
_PickedSet4, ENCASTRE
** ----------------------------------------------------------------
** 
** STEP: Step-1
** 
*Step, name=Step-1, nlgeom=NO
*Static
1., 1., 1e-05, 1.
** 
** LOADS
** 
** Name: Load-1   Type: Concentrated force
*Cload
_PickedSet6, 2, -100.
** 
** OUTPUT REQUESTS
** 
*Restart, write, frequency=0
** 
** FIELD OUTPUT: F-Output-1
** 
*Output, field
*Node Output
U, 
*Element Output, directions=YES
E, ELSE, EVOL, MISES, S
** 
** HISTORY OUTPUT: H-Output-1
** 
*Output, history, variable=PRESELECT
*End Step
